22

 C             -0.0000000000   2.4849408065  -0.0130820945
 C             -0.0000000000  -2.4849408551  -0.0130820396
 C              0.0000000000   2.4774185799  -1.4303381337
 C             -0.0000000000  -2.4774184936  -1.4303380558
 C             -0.0000000000   1.2537997038  -2.1454806673
 C             -0.0000000000  -1.2537995938  -2.1454805357
 C              0.0000000000   0.0000000485  -1.4486899385
 C              0.0000000000   0.0000000576  -0.0000000790
 C             -0.0000000000   1.2546024904   0.7243450324
 C              0.0000000000  -1.2546026443   0.7243451698
 C             -0.0000000000   1.2311410399   2.1585625550
 C             -0.0000000000  -1.2311411174   2.1585626404
 C              0.0000000000  -0.0000000242   2.8606761787
 H              0.0000000000   3.4232504963   0.5199631734
 H              0.0000000000  -3.4232506507   0.5199630460
 H              0.0000000000   3.4113051402  -1.9695179213
 H             -0.0000000000  -3.4113050242  -1.9695178921
 H             -0.0000000000   1.2613238297  -3.2246033857
 H             -0.0000000000  -1.2613238143  -3.2246032531
 H             -0.0000000000   2.1619265171   2.7046400730
 H             -0.0000000000  -2.1619265451   2.7046402518
 H              0.0000000000   0.0000000709   3.9390355238
