52

 C             -3.6819838372   3.5600568966   0.0000000000
 C             -2.4571345150   2.8546968002   0.0000000000
 C             -1.2260822195   3.5345430626   0.0000000000
 C              0.0000001195   2.8506197969   0.0000000000
 C              1.2260822697   3.5345431679  -0.0000000000
 C              2.4571345558   2.8546969206  -0.0000000000
 C              3.6819837952   3.5600570835   0.0000000000
 C              4.8804661243   2.8746979104   0.0000000000
 C              4.9031016260   1.4814854519  -0.0000000000
 C              3.7147465051   0.7278436298  -0.0000000000
 C              2.4730990102   1.4226365395  -0.0000000000
 C              1.2335857705   0.7113570808   0.0000000000
 C             -0.0000002121   1.4145987885   0.0000000000
 C             -1.2335855213   0.7113569713  -0.0000000000
 C             -2.4730987209   1.4226364002   0.0000000000
 C             -3.7147463121   0.7278435705  -0.0000000000
 C             -4.9031014873   1.4814852270  -0.0000000000
 C             -4.8804661595   2.8746976832  -0.0000000000
 C             -3.7147463747  -0.7278435349  -0.0000000000
 C             -2.4730989017  -1.4226363858  -0.0000000000
 C             -1.2335858108  -0.7113570176  -0.0000000000
 C             -0.0000002318  -1.4145989339  -0.0000000000
 C              1.2335856140  -0.7113571007   0.0000000000
 C              2.4730988125  -1.4226365007  -0.0000000000
 C              3.7147463646  -0.7278435574  -0.0000000000
 C              4.9031014912  -1.4814853171  -0.0000000000
 C              4.8804661171  -2.8746977648  -0.0000000000
 C              3.6819838106  -3.5600570002   0.0000000000
 C              2.4571345039  -2.8546969134   0.0000000000
 C              1.2260822548  -3.5345432557   0.0000000000
 C              0.0000000251  -2.8506199573   0.0000000000
 C             -1.2260823262  -3.5345431289   0.0000000000
 C             -2.4571345814  -2.8546967783   0.0000000000
 C             -3.6819838507  -3.5600569078   0.0000000000
 C             -4.8804661570  -2.8746976994  -0.0000000000
 C             -4.9031015375  -1.4814852475  -0.0000000000
 H             -3.6677157172   4.6357240271   0.0000000000
 H             -1.2246190169   4.6107700533   0.0000000000
 H              1.2246189835   4.6107701516  -0.0000000000
 H              3.6677156518   4.6357242209   0.0000000000
 H              5.8095225176   3.4170157911   0.0000000000
 H              5.8564012743   0.9919329512  -0.0000000000
 H             -5.8564010804   0.9919325811  -0.0000000000
 H             -5.8095225825   3.4170154894   0.0000000000
 H              5.8564010973  -0.9919327233   0.0000000000
 H              5.8095225503  -3.4170155803  -0.0000000000
 H             -5.8095225714  -3.4170155213   0.0000000000
 H             -5.8564011521  -0.9919326580  -0.0000000000
 H              3.6677157341  -4.6357241426   0.0000000000
 H              1.2246190516  -4.6107702354   0.0000000000
 H             -1.2246191671  -4.6107701277  -0.0000000000
 H             -3.6677157339  -4.6357240409  -0.0000000000
