96

 C             -7.8494573848  -3.6750667391   0.0000000000
 C             -7.1424074168  -2.4514052699   0.0000000000
 C             -7.8204582382  -1.2222154671   0.0000000000
 C             -7.1321308913   0.0000042487  -0.0000000000
 C             -7.8204617179   1.2222244690  -0.0000000000
 C             -7.1424107889   2.4514158741   0.0000000000
 C             -7.8494601967   3.6750774583   0.0000000000
 C             -7.1650937936   4.8745599480  -0.0000000000
 C             -5.7734416096   4.8967714185   0.0000000000
 C             -5.0197209365   3.7050057986   0.0000000000
 C             -5.7107007714   2.4654258122   0.0000000000
 C             -4.9905500707   1.2310780817   0.0000000000
 C             -5.6959310375   0.0000031020   0.0000000000
 C             -4.9905439029  -1.2310649735   0.0000000000
 C             -5.7106975645  -2.4654121132  -0.0000000000
 C             -5.0197200172  -3.7049954925  -0.0000000000
 C             -5.7734398414  -4.8967608628  -0.0000000000
 C             -7.1650915669  -4.8745492489   0.0000000000
 C             -3.5730606491  -3.6997631691  -0.0000000000
 C             -2.8587372050  -2.4711659444   0.0000000000
 C             -3.5671111715  -1.2306706829   0.0000000000
 C             -2.8546223913  -0.0000003678  -0.0000000000
 C             -3.5671163023   1.2306659355  -0.0000000000
 C             -2.8587387009   2.4711573464  -0.0000000000
 C             -3.5730614447   3.6997582046  -0.0000000000
 C             -2.8303865783   4.8988238643  -0.0000000000
 C             -1.4620308405   4.8979792353  -0.0000000000
 C             -0.7195761447   3.6961991210   0.0000000000
 C             -1.4299084008   2.4691540142  -0.0000000000
 C             -0.7121678420   1.2311415372  -0.0000000000
 C             -1.4240529969   0.0000108212  -0.0000000000
 C             -0.7121648133  -1.2311589951  -0.0000000000
 C             -1.4299059647  -2.4691750269  -0.0000000000
 C             -0.7195811264  -3.6962283906  -0.0000000000
 C             -1.4620425005  -4.8980073525  -0.0000000000
 C             -2.8303992784  -4.8988378479   0.0000000000
 C              0.7195788313  -3.6962244078  -0.0000000000
 C              1.4299062999  -2.4691712450  -0.0000000000
 C              0.7121663037  -1.2311573694  -0.0000000000
 C              1.4240552831   0.0000018792   0.0000000000
 C              0.7121676645   1.2311434739  -0.0000000000
 C              1.4299076442   2.4691567695   0.0000000000
 C              0.7195769079   3.6962012978   0.0000000000
 C              1.4620301803   4.8979833310   0.0000000000
 C              2.8303865069   4.8988312201   0.0000000000
 C              3.5730621433   3.6997663645   0.0000000000
 C              2.8587377203   2.4711664163   0.0000000000
 C              3.5671139433   1.2306718495   0.0000000000
 C              2.8546247976  -0.0000042582   0.0000000000
 C              3.5671128410  -1.2306662028  -0.0000000000
 C              2.8587364975  -2.4711590389   0.0000000000
 C              3.5730598445  -3.6997566064   0.0000000000
 C              2.8303977359  -4.8988308111  -0.0000000000
 C              1.4620416240  -4.8980017952  -0.0000000000
 C              5.0197197070  -3.7049959682   0.0000000000
 C              5.7106989079  -2.4654142432   0.0000000000
 C              4.9905441610  -1.2310687191  -0.0000000000
 C              5.6959302179  -0.0000002792  -0.0000000000
 C              4.9905501768   1.2310746217  -0.0000000000
 C              5.7107001718   2.4654239606  -0.0000000000
 C              5.0197218545   3.7050063565  -0.0000000000
 C              5.7734427399   4.8967715083  -0.0000000000
 C              7.1650946882   4.8745587629   0.0000000000
 C              7.8494601525   3.6750758506   0.0000000000
 C              7.1424100864   2.4514145571  -0.0000000000
 C              7.8204608231   1.2222231370   0.0000000000
 C              7.1321297053   0.0000037398   0.0000000000
 C              7.8204578540  -1.2222161506   0.0000000000
 C              7.1424085925  -2.4514067969  -0.0000000000
 C              7.8494584093  -3.6750684115  -0.0000000000
 C              7.1650916545  -4.8745505825   0.0000000000
 C              5.7734396656  -4.8967615898   0.0000000000
 H             -8.9249749202  -3.6586216763  -0.0000000000
 H             -8.8964954023  -1.2172232836   0.0000000000
 H             -8.8964989455   1.2172304441   0.0000000000
 H             -8.9249777160   3.6586324869   0.0000000000
 H             -7.7076021120   5.8034381433  -0.0000000000
 H             -5.2855008484   5.8503550918  -0.0000000000
 H             -5.2854981477  -5.8503447360   0.0000000000
 H             -7.7075994357  -5.8034277577   0.0000000000
 H             -3.3305753853   5.8460066308  -0.0000000000
 H             -0.9631485320   5.8453186412  -0.0000000000
 H             -0.9631650238  -5.8453490843  -0.0000000000
 H             -3.3306006304  -5.8460148557  -0.0000000000
 H              0.9631446495   5.8453209093   0.0000000000
 H              3.3305761301   5.8460139797   0.0000000000
 H              3.3305977888  -5.8460080920  -0.0000000000
 H              0.9631660616  -5.8453445974  -0.0000000000
 H              5.2855016274   5.8503553855  -0.0000000000
 H              7.7076036178   5.8034366351   0.0000000000
 H              7.7075991395  -5.8034292843   0.0000000000
 H              5.2854986048  -5.8503454510  -0.0000000000
 H              8.9249776329   3.6586306667   0.0000000000
 H              8.8964983091   1.2172285505   0.0000000000
 H              8.8964946879  -1.2172230336  -0.0000000000
 H              8.9249760040  -3.6586234111   0.0000000000
