24

 C             -3.6536004571  -0.7091427814  -0.0000000000
 C             -2.4739319792  -1.4000987589  -0.0000000000
 C             -1.2234241641  -0.7165176444   0.0000000000
 C             -0.0000000116  -1.3990240601   0.0000000000
 C              1.2234241385  -0.7165176367   0.0000000000
 C              2.4739319611  -1.4000987450   0.0000000000
 C              3.6536004472  -0.7091427734  -0.0000000000
 C              3.6536004644   0.7091427481  -0.0000000000
 C              2.4739320019   1.4000987475   0.0000000000
 C              1.2234241635   0.7165176705   0.0000000000
 C              0.0000000117   1.3990241064  -0.0000000000
 C             -1.2234241383   0.7165176626  -0.0000000000
 C             -2.4739319838   1.4000987337  -0.0000000000
 C             -3.6536004543   0.7091427400  -0.0000000000
 H             -4.5894866779  -1.2393854287   0.0000000000
 H             -2.4752071477  -2.4764280625  -0.0000000000
 H             -0.0000000083  -2.4758254324  -0.0000000000
 H              2.4752071260  -2.4764280483   0.0000000000
 H              4.5894866620  -1.2393854325  -0.0000000000
 H              4.5894867039   1.2393853647  -0.0000000000
 H              2.4752072036   2.4764280498   0.0000000000
 H              0.0000000084   2.4758254801   0.0000000000
 H             -2.4752071822   2.4764280357   0.0000000000
 H             -4.5894866875   1.2393853680   0.0000000000
