36

 C             -6.1217982926  -0.7071778215   0.0000000000
 C             -4.9366237543  -1.3998283860   0.0000000000
 C             -3.6897914036  -0.7178722403  -0.0000000000
 C             -2.4626843936  -1.4023077266  -0.0000000000
 C             -1.2319785991  -0.7233644298  -0.0000000000
 C              0.0000000526  -1.4044838815   0.0000000000
 C              1.2319786203  -0.7233643264   0.0000000000
 C              2.4626844035  -1.4023076096  -0.0000000000
 C              3.6897914130  -0.7178721741  -0.0000000000
 C              4.9366237090  -1.3998284041  -0.0000000000
 C              6.1217982702  -0.7071779079   0.0000000000
 C              6.1217983038   0.7071777218   0.0000000000
 C              4.9366237883   1.3998283210   0.0000000000
 C              3.6897914056   0.7178722304   0.0000000000
 C              2.4626844299   1.4023077677  -0.0000000000
 C              1.2319786149   0.7233645186  -0.0000000000
 C             -0.0000000499   1.4044839879   0.0000000000
 C             -1.2319786314   0.7233644161  -0.0000000000
 C             -2.4626844377   1.4023076505  -0.0000000000
 C             -3.6897914155   0.7178721645  -0.0000000000
 C             -4.9366237466   1.3998283384   0.0000000000
 C             -6.1217982865   0.7071778086   0.0000000000
 H             -7.0566382978  -1.2391717426   0.0000000000
 H             -4.9388060760  -2.4761830665   0.0000000000
 H             -2.4645431651  -2.4790587728  -0.0000000000
 H              0.0000001025  -2.4811591448   0.0000000000
 H              2.4645431521  -2.4790586522  -0.0000000000
 H              4.9388059665  -2.4761830865   0.0000000000
 H              7.0566382508  -1.2391718757   0.0000000000
 H              7.0566383294   1.2391716080  -0.0000000000
 H              4.9388061451   2.4761829998  -0.0000000000
 H              2.4645432485   2.4790588158  -0.0000000000
 H             -0.0000000993   2.4811592491   0.0000000000
 H             -2.4645432335   2.4790586950   0.0000000000
 H             -4.9388060396   2.4761830193  -0.0000000000
 H             -7.0566382869   1.2391717418  -0.0000000000
