42

 C             -7.3535606848  -0.7069904097  -0.0000000000
 C             -6.1681089883  -1.3996471250  -0.0000000000
 C             -4.9218555708  -0.7175754540   0.0000000000
 C             -3.6937775662  -1.4020854872   0.0000000000
 C             -2.4645817974  -0.7231949144   0.0000000000
 C             -1.2305864400  -1.4045224084   0.0000000000
 C              0.0000000033  -0.7246975073   0.0000000000
 C              1.2305864582  -1.4045223688   0.0000000000
 C              2.4645818065  -0.7231948725   0.0000000000
 C              3.6937775558  -1.4020854603   0.0000000000
 C              4.9218555530  -0.7175754356  -0.0000000000
 C              6.1681089591  -1.3996471301  -0.0000000000
 C              7.3535606721  -0.7069904416  -0.0000000000
 C              7.3535607664   0.7069900940  -0.0000000000
 C              6.1681091435   1.3996469636  -0.0000000000
 C              4.9218556252   0.7175754436  -0.0000000000
 C              3.6937776577   1.4020855845   0.0000000000
 C              2.4645818250   0.7231950823   0.0000000000
 C              1.2305864594   1.4045225775   0.0000000000
 C             -0.0000000033   0.7246976761   0.0000000000
 C             -1.2305864779   1.4045225372   0.0000000000
 C             -2.4645818346   0.7231950400   0.0000000000
 C             -3.6937776474   1.4020855572  -0.0000000000
 C             -4.9218556072   0.7175754249  -0.0000000000
 C             -6.1681091139   1.3996469680  -0.0000000000
 C             -7.3535607537   0.7069901259  -0.0000000000
 H             -8.2883232620  -1.2391052289  -0.0000000000
 H             -6.1702683650  -2.4760028162  -0.0000000000
 H             -3.6956691783  -2.4788509524   0.0000000000
 H             -1.2310614352  -2.4812254515   0.0000000000
 H              1.2310614562  -2.4812254039   0.0000000000
 H              3.6956691560  -2.4788509269   0.0000000000
 H              6.1702683091  -2.4760028206   0.0000000000
 H              8.2883232386  -1.2391052778  -0.0000000000
 H              8.2883234223   1.2391047651  -0.0000000000
 H              6.1702686589   2.4760026562  -0.0000000000
 H              3.6956693461   2.4788510523   0.0000000000
 H              1.2310614438   2.4812256197   0.0000000000
 H             -1.2310614644   2.4812255713   0.0000000000
 H             -3.6956693233   2.4788510261   0.0000000000
 H             -6.1702686002   2.4760026594  -0.0000000000
 H             -8.2883233987   1.2391048144  -0.0000000000
