72

 C            -13.5107517574  -0.7070136648  -0.0000000000
 C            -12.3254481931  -1.3996798451  -0.0000000000
 C            -11.0792309283  -0.7174883185  -0.0000000000
 C             -9.8511101088  -1.4020062584  -0.0000000000
 C             -8.6224474008  -0.7229100459  -0.0000000000
 C             -7.3875629727  -1.4043174778  -0.0000000000
 C             -6.1589600698  -0.7243011228  -0.0000000000
 C             -4.9255197645  -1.4043759662  -0.0000000000
 C             -3.6949607991  -0.7241736763  -0.0000000000
 C             -2.4629466793  -1.4042062316  -0.0000000000
 C             -1.2315732093  -0.7239966415  -0.0000000000
 C             -0.0000000146  -1.4041449798   0.0000000000
 C              1.2315732127  -0.7239966886   0.0000000000
 C              2.4629466891  -1.4042062780   0.0000000000
 C              3.6949608061  -0.7241737056   0.0000000000
 C              4.9255197807  -1.4043759723   0.0000000000
 C              6.1589600820  -0.7243011107   0.0000000000
 C              7.3875629886  -1.4043174618   0.0000000000
 C              8.6224474145  -0.7229100244   0.0000000000
 C              9.8511101115  -1.4020062559   0.0000000000
 C             11.0792309325  -0.7174883339  -0.0000000000
 C             12.3254482049  -1.3996798506   0.0000000000
 C             13.5107517680  -0.7070136621   0.0000000000
 C             13.5107517252   0.7070139426  -0.0000000000
 C             12.3254481293   1.3996800576  -0.0000000000
 C             11.0792308934   0.7174884695  -0.0000000000
 C              9.8511100612   1.4020063420  -0.0000000000
 C              8.6224473806   0.7229100678  -0.0000000000
 C              7.3875629575   1.4043174711  -0.0000000000
 C              6.1589600749   0.7243010811  -0.0000000000
 C              4.9255197511   1.4043758835  -0.0000000000
 C              3.6949607915   0.7241735735   0.0000000000
 C              2.4629466383   1.4042060569   0.0000000000
 C              1.2315731994   0.7239964053   0.0000000000
 C              0.0000000143   1.4041447330   0.0000000000
 C             -1.2315732042   0.7239964526   0.0000000000
 C             -2.4629466501   1.4042061034   0.0000000000
 C             -3.6949608012   0.7241736030   0.0000000000
 C             -4.9255197711   1.4043758895   0.0000000000
 C             -6.1589600907   0.7243010690  -0.0000000000
 C             -7.3875629763   1.4043174547   0.0000000000
 C             -8.6224473969   0.7229100461   0.0000000000
 C             -9.8511100634   1.4020063407   0.0000000000
 C            -11.0792308942   0.7174884850   0.0000000000
 C            -12.3254481351   1.3996800642   0.0000000000
 C            -13.5107517269   0.7070139395   0.0000000000
 H            -14.4455464883  -1.2390258280  -0.0000000000
 H            -12.3276154600  -2.4760138556  -0.0000000000
 H             -9.8529034749  -2.4787567541  -0.0000000000
 H             -7.3879773950  -2.4810190810  -0.0000000000
 H             -4.9254755584  -2.4811073366  -0.0000000000
 H             -2.4628910632  -2.4809538850  -0.0000000000
 H             -0.0000000039  -2.4808965319   0.0000000000
 H              2.4628910906  -2.4809539323   0.0000000000
 H              4.9254755995  -2.4811073425   0.0000000000
 H              7.3879774034  -2.4810190639   0.0000000000
 H              9.8529034396  -2.4787567537   0.0000000000
 H             12.3276154756  -2.4760138608   0.0000000000
 H             14.4455465051  -1.2390258159   0.0000000000
 H             14.4455464262   1.2390261610  -0.0000000000
 H             12.3276153513   2.4760140680  -0.0000000000
 H              9.8529033854   2.4787568392  -0.0000000000
 H              7.3879773903   2.4810190764  -0.0000000000
 H              4.9254755488   2.4811072518   0.0000000000
 H              2.4628909451   2.4809537112   0.0000000000
 H              0.0000000065   2.4808962863   0.0000000000
 H             -2.4628909741   2.4809537583   0.0000000000
 H             -4.9254755937   2.4811072579   0.0000000000
 H             -7.3879774021   2.4810190588   0.0000000000
 H             -9.8529033497   2.4787568401   0.0000000000
 H            -12.3276153616   2.4760140743   0.0000000000
 H            -14.4455464338   1.2390261473   0.0000000000
