74

 C              5.7064253590   3.6755630574   0.0000000000
 C              4.9988250908   2.4521956645  -0.0000000000
 C              5.6763778161   1.2224352284  -0.0000000000
 C              4.9880638961  -0.0000002457  -0.0000000000
 C              5.6763780006  -1.2224358179   0.0000000000
 C              4.9988254911  -2.4521963957   0.0000000000
 C              5.7064257076  -3.6755638708   0.0000000000
 C              5.0226656989  -4.8753637183  -0.0000000000
 C              3.6308768966  -4.8984770514   0.0000000000
 C              2.8763853521  -3.7075337440   0.0000000000
 C              3.5670520506  -2.4671881441  -0.0000000000
 C              2.8470740280  -1.2323942280  -0.0000000000
 C              3.5517039530  -0.0000003731   0.0000000000
 C              2.8470739090   1.2323931962   0.0000000000
 C              3.5670515858   2.4671874749   0.0000000000
 C              2.8763847649   3.7075332507  -0.0000000000
 C              3.6308766034   4.8984764043  -0.0000000000
 C              5.0226654207   4.8753629247  -0.0000000000
 C              1.4286211902   3.7042517936   0.0000000000
 C              0.7147297124   2.4757054602   0.0000000000
 C              1.4237945936   1.2329506211   0.0000000000
 C              0.7146524072  -0.0000001614   0.0000000000
 C              1.4237953820  -1.2329503703  -0.0000000000
 C              0.7147310552  -2.4757049676  -0.0000000000
 C              1.4286220078  -3.7042516172  -0.0000000000
 C              0.6851779179  -4.9028000715   0.0000000000
 C             -0.6851772207  -4.9028000703   0.0000000000
 C             -1.4286211519  -3.7042515636  -0.0000000000
 C             -0.7147298056  -2.4757050665  -0.0000000000
 C             -1.4237945258  -1.2329507806   0.0000000000
 C             -0.7146521766   0.0000004042   0.0000000000
 C             -1.4237954282   1.2329507909   0.0000000000
 C             -0.7147312450   2.4757050807   0.0000000000
 C             -1.4286221101   3.7042518231   0.0000000000
 C             -0.6851779758   4.9028002929  -0.0000000000
 C              0.6851771754   4.9028002926  -0.0000000000
 C             -2.8763854674   3.7075336701   0.0000000000
 C             -3.5670521375   2.4671880137   0.0000000000
 C             -2.8470742411   1.2323939812   0.0000000000
 C             -3.5517039679   0.0000000118   0.0000000000
 C             -2.8470736824  -1.2323933553  -0.0000000000
 C             -3.5670514350  -2.4671875105  -0.0000000000
 C             -2.8763846663  -3.7075332708  -0.0000000000
 C             -3.6308764356  -4.8984764662   0.0000000000
 C             -5.0226652499  -4.8753629972   0.0000000000
 C             -5.7064251968  -3.6755631344   0.0000000000
 C             -4.9988249604  -2.4521957054  -0.0000000000
 C             -5.6763777331  -1.2224352637   0.0000000000
 C             -4.9880638987   0.0000003227  -0.0000000000
 C             -5.6763780443   1.2224357828  -0.0000000000
 C             -4.9988255264   2.4521962889  -0.0000000000
 C             -5.7064258145   3.6755636787  -0.0000000000
 C             -5.0226658865   4.8753635526   0.0000000000
 C             -3.6308770878   4.8984769289   0.0000000000
 H              6.7819594718   3.6587662531   0.0000000000
 H              6.7524474736   1.2172313147  -0.0000000000
 H              6.7524476781  -1.2172317312   0.0000000000
 H              6.7819598205  -3.6587671342   0.0000000000
 H              5.5657411004  -5.8039228691  -0.0000000000
 H              3.1432687192  -5.8523045981   0.0000000000
 H              3.1432686000   5.8523040322  -0.0000000000
 H              5.5657408936   5.8039220244  -0.0000000000
 H              1.1853967189  -5.8500742459   0.0000000000
 H             -1.1853960588  -5.8500741979   0.0000000000
 H             -1.1853966692   5.8500745272  -0.0000000000
 H              1.1853959942   5.8500744368  -0.0000000000
 H             -3.1432684071  -5.8523040825   0.0000000000
 H             -5.5657407169  -5.8039221094   0.0000000000
 H             -5.5657413326   5.8039226684   0.0000000000
 H             -3.1432689418   5.8523044816   0.0000000000
 H             -6.7819592977  -3.6587663568   0.0000000000
 H             -6.7524473812  -1.2172313499   0.0000000000
 H             -6.7524476906   1.2172317394  -0.0000000000
 H             -6.7819599140   3.6587668412  -0.0000000000
