62

 C             -4.9120097457   3.5608212930   0.0000000000
 C             -3.6872990636   2.8553118649  -0.0000000000
 C             -2.4552737115   3.5356966643  -0.0000000000
 C             -1.2300128224   2.8521113800  -0.0000000000
 C             -0.0000000630   3.5349323081   0.0000000000
 C              1.2300126436   2.8521113527   0.0000000000
 C              2.4552735338   3.5356964626   0.0000000000
 C              3.6872988956   2.8553116908  -0.0000000000
 C              4.9120095469   3.5608211667  -0.0000000000
 C              6.1106249682   2.8757081306  -0.0000000000
 C              6.1341718926   1.4822145412   0.0000000000
 C              4.9466623090   0.7282403966   0.0000000000
 C              3.7048945954   1.4234243203  -0.0000000000
 C              2.4657401251   0.7125369353   0.0000000000
 C              1.2349495953   1.4162414021  -0.0000000000
 C             -0.0000001301   0.7106440641   0.0000000000
 C             -1.2349497701   1.4162413084   0.0000000000
 C             -2.4657403838   0.7125368845   0.0000000000
 C             -3.7048947480   1.4234244407   0.0000000000
 C             -4.9466623601   0.7282404959  -0.0000000000
 C             -6.1341720152   1.4822145987  -0.0000000000
 C             -6.1106251524   2.8757081960   0.0000000000
 C             -4.9466623239  -0.7282404001   0.0000000000
 C             -3.7048946606  -1.4234243479   0.0000000000
 C             -2.4657402749  -0.7125368415   0.0000000000
 C             -1.2349497145  -1.4162410840  -0.0000000000
 C              0.0000000551  -0.7106441877  -0.0000000000
 C              1.2349498107  -1.4162414675   0.0000000000
 C              2.4657405262  -0.7125368934   0.0000000000
 C              3.7048948405  -1.4234245539  -0.0000000000
 C              4.9466624235  -0.7282405196   0.0000000000
 C              6.1341720691  -1.4822145913   0.0000000000
 C              6.1106252232  -2.8757081923   0.0000000000
 C              4.9120098457  -3.5608213480   0.0000000000
 C              3.6872991356  -2.8553119650  -0.0000000000
 C              2.4552737506  -3.5356967308  -0.0000000000
 C              1.2300128876  -2.8521114875   0.0000000000
 C             -0.0000000114  -3.5349321621  -0.0000000000
 C             -1.2300127004  -2.8521110673  -0.0000000000
 C             -2.4552735324  -3.5356964033  -0.0000000000
 C             -3.6872989464  -2.8553117425   0.0000000000
 C             -4.9120095923  -3.5608212151  -0.0000000000
 C             -6.1106250208  -2.8757081525   0.0000000000
 C             -6.1341719232  -1.4822145512   0.0000000000
 H             -4.8978246092   4.6364837992   0.0000000000
 H             -2.4547322089   4.6119420517  -0.0000000000
 H             -0.0000001101   4.6111725813   0.0000000000
 H              2.4547321196   4.6119418273   0.0000000000
 H              4.8978243432   4.6364836650  -0.0000000000
 H              7.0394412633   3.4184010580   0.0000000000
 H              7.0878566714   0.9933098656   0.0000000000
 H             -7.0878567471   0.9933098374  -0.0000000000
 H             -7.0394414869   3.4184010745  -0.0000000000
 H              7.0878568062  -0.9933098255  -0.0000000000
 H              7.0394415587  -3.4184010509  -0.0000000000
 H             -7.0394413315  -3.4184010611  -0.0000000000
 H             -7.0878566840  -0.9933098445   0.0000000000
 H              4.8978247663  -4.6364838514  -0.0000000000
 H              2.4547322555  -4.6119421076  -0.0000000000
 H             -0.0000003757  -4.6111724379  -0.0000000000
 H             -2.4547318973  -4.6119417815  -0.0000000000
 H             -4.8978244127  -4.6364837182  -0.0000000000
