102

 C             14.3440493551   1.2295979333   0.0000000000
 C             13.6458546511   0.0000019218   0.0000000000
 C             14.3440502583  -1.2295935889   0.0000000000
 C             13.6521289515  -2.4207835956   0.0000000000
 C             12.2578539747  -2.4315258934   0.0000000000
 C             11.5119138510  -1.2417366420   0.0000000000
 C             12.2172912338   0.0000014195   0.0000000000
 C             11.5119129020   1.2417389798   0.0000000000
 C             12.2578521629   2.4315287341   0.0000000000
 C             13.6521271422   2.4207874244   0.0000000000
 C             10.0607740920   1.2356484839   0.0000000000
 C              9.3477082045   0.0000004817   0.0000000000
 C             10.0607750123  -1.2356471076   0.0000000000
 C              9.3121984914  -2.4286083102   0.0000000000
 C              7.9384399471  -2.4289340862   0.0000000000
 C              7.1915373729  -1.2318614401   0.0000000000
 C              7.9098886532   0.0000000376   0.0000000000
 C              7.1915365741   1.2318611677   0.0000000000
 C              7.9384383200   2.4289342736   0.0000000000
 C              9.3121968552   2.4286092387   0.0000000000
 C              5.7484812686   1.2315863201   0.0000000000
 C              5.0313542407  -0.0000007814   0.0000000000
 C              5.7484820853  -1.2315874489   0.0000000000
 C              4.9991024838  -2.4289966076   0.0000000000
 C              3.6272060775  -2.4293593430   0.0000000000
 C              2.8773947356  -1.2319171256   0.0000000000
 C              3.5944819320  -0.0000014070   0.0000000000
 C              2.8773941178   1.2319139878   0.0000000000
 C              3.6272045683   2.4293566947   0.0000000000
 C              4.9991009476   2.4289950251   0.0000000000
 C              1.4355359124   1.2319150627   0.0000000000
 C              0.7184298294  -0.0000017801   0.0000000000
 C              1.4355363556  -1.2319184648   0.0000000000
 C              0.6858191220  -2.4296284008   0.0000000000
 C             -0.6858188295  -2.4296284426   0.0000000000
 C             -1.4355361999  -1.2319185508   0.0000000000
 C             -0.7184298752  -0.0000018070   0.0000000000
 C             -1.4355360079   1.2319150458   0.0000000000
 C             -0.6858190565   2.4296251957   0.0000000000
 C              0.6858188559   2.4296251857   0.0000000000
 C             -2.8773941841   1.2319139498   0.0000000000
 C             -3.5944819584  -0.0000014199   0.0000000000
 C             -2.8773946284  -1.2319170828   0.0000000000
 C             -3.6272059723  -2.4293593379   0.0000000000
 C             -4.9991023835  -2.4289968086   0.0000000000
 C             -5.7484820838  -1.2315877032   0.0000000000
 C             -5.0313542588  -0.0000010478   0.0000000000
 C             -5.7484812824   1.2315860582   0.0000000000
 C             -4.9991010494   2.4289947981   0.0000000000
 C             -3.6272046726   2.4293566230   0.0000000000
 C             -7.1915365602   1.2318609538   0.0000000000
 C             -7.9098886501  -0.0000001440   0.0000000000
 C             -7.1915373935  -1.2318616563   0.0000000000
 C             -7.9384400525  -2.4289342588   0.0000000000
 C             -9.3121986100  -2.4286084234   0.0000000000
 C            -10.0607750858  -1.2356471954   0.0000000000
 C             -9.3477082068   0.0000003543   0.0000000000
 C            -10.0607740242   1.2356484026   0.0000000000
 C             -9.3121967437   2.4286091365   0.0000000000
 C             -7.9384382207   2.4289341070   0.0000000000
 C            -11.5119128235   1.2417389896   0.0000000000
 C            -12.2172912416   0.0000014714   0.0000000000
 C            -11.5119139396  -1.2417366327   0.0000000000
 C            -12.2578541590  -2.4315258262   0.0000000000
 C            -13.6521291396  -2.4207834042   0.0000000000
 C            -14.3440503555  -1.2295933417   0.0000000000
 C            -13.6458546586   0.0000021132   0.0000000000
 C            -14.3440492748   1.2295981790   0.0000000000
 C            -13.6521269730   2.4207876141   0.0000000000
 C            -12.2578519937   2.4315288023   0.0000000000
 H             15.4197315967   1.2209271454   0.0000000000
 H             15.4197324921  -1.2209219982   0.0000000000
 H             14.1859442860  -3.3547224499   0.0000000000
 H             11.7648322721  -3.3827663444   0.0000000000
 H             11.7648297779   3.3827688426   0.0000000000
 H             14.1859417782   3.3547266640   0.0000000000
 H              9.8081906217  -3.3783523156   0.0000000000
 H              7.4426554239  -3.3784957436   0.0000000000
 H              7.4426532106   3.3784956516   0.0000000000
 H              9.8081884651   3.3783535324   0.0000000000
 H              5.4947937524  -3.3786636277   0.0000000000
 H              3.1316571147  -3.3791314197   0.0000000000
 H              3.1316548546   3.3791284446   0.0000000000
 H              5.4947915918   3.3786623957   0.0000000000
 H              1.1816696504  -3.3792465645   0.0000000000
 H             -1.1816693210  -3.3792466256   0.0000000000
 H             -1.1816697736   3.3792433872   0.0000000000
 H              1.1816695757   3.3792433760   0.0000000000
 H             -3.1316569130  -3.3791313574   0.0000000000
 H             -5.4947935510  -3.3786638885   0.0000000000
 H             -5.4947918083   3.3786621147   0.0000000000
 H             -3.1316549820   3.3791283842   0.0000000000
 H             -7.4426555826  -3.3784959421   0.0000000000
 H             -9.8081907775  -3.3783524095   0.0000000000
 H             -9.8081883181   3.3783534481   0.0000000000
 H             -7.4426530442   3.3784954537   0.0000000000
 H            -11.7648325400  -3.3827663198   0.0000000000
 H            -14.1859445506  -3.3547222117   0.0000000000
 H            -14.1859415327   3.3547268966   0.0000000000
 H            -11.7648295252   3.3827688670   0.0000000000
 H            -15.4197325897  -1.2209216627   0.0000000000
 H            -15.4197315171   1.2209274702   0.0000000000
