24

 C             -0.0000000000   0.6739561225  -2.0819209069
 C             -0.0000000000  -0.6739561229  -2.0819209066
 C              0.0000000000   1.4160198975  -0.8529250020
 C              0.0000000000  -1.4160198975  -0.8529250017
 C             -0.0000000000   2.8258949861  -0.8690322919
 C              0.0000000000  -2.8258949860  -0.8690322921
 C             -0.0000000000   3.5463858699   0.2970430149
 C             -0.0000000000  -3.5463858698   0.2970430146
 C             -0.0000000000   2.8711090419   1.5259571732
 C             -0.0000000000  -2.8711090418   1.5259571729
 C              0.0000000000   1.4986330263   1.5649693450
 C             -0.0000000000  -1.4986330262   1.5649693453
 C              0.0000000000   0.7288003287   0.3814032134
 C              0.0000000000  -0.7288003287   0.3814032139
 H             -0.0000000000   1.2190389034  -3.0097596397
 H              0.0000000000  -1.2190389047  -3.0097596390
 H             -0.0000000000   3.3327359452  -1.8185623542
 H             -0.0000000000  -3.3327359450  -1.8185623544
 H              0.0000000000   4.6216404801   0.2719502890
 H              0.0000000000  -4.6216404800   0.2719502887
 H             -0.0000000000   3.4302770671   2.4448952701
 H              0.0000000000  -3.4302770672   2.4448952697
 H              0.0000000000   1.0153981377   2.5227200635
 H              0.0000000000  -1.0153981379   2.5227200639
