24

 C             -0.0000000000   0.6693191758  -2.0811652932
 C              0.0000000000  -0.6693191758  -2.0811652933
 C              0.0000000000   1.4133675953  -0.8477584834
 C              0.0000000000  -1.4133675953  -0.8477584835
 C             -0.0000000000   2.8216177919  -0.8661263582
 C              0.0000000000  -2.8216177919  -0.8661263582
 C             -0.0000000000   3.5402756857   0.2950648919
 C             -0.0000000000  -3.5402756856   0.2950648920
 C             -0.0000000000   2.8657084790   1.5237576974
 C             -0.0000000000  -2.8657084790   1.5237576975
 C              0.0000000000   1.4985900185   1.5625822225
 C             -0.0000000000  -1.4985900185   1.5625822225
 C              0.0000000000   0.7306157683   0.3794039499
 C              0.0000000000  -0.7306157683   0.3794039499
 H             -0.0000000000   1.2164606562  -3.0077483765
 H             -0.0000000000  -1.2164606559  -3.0077483766
 H             -0.0000000000   3.3271954915  -1.8163080696
 H             -0.0000000000  -3.3271954916  -1.8163080696
 H              0.0000000000   4.6155298541   0.2700312081
 H              0.0000000000  -4.6155298540   0.2700312081
 H              0.0000000000   3.4256244623   2.4422219304
 H              0.0000000000  -3.4256244623   2.4422219304
 H              0.0000000000   1.0145979228   2.5199025705
 H              0.0000000000  -1.0145979228   2.5199025705
