24

 C             -0.0000000000   0.7039799080  -2.1119874077
 C              0.0000000000  -0.7039798165  -2.1119874085
 C             -0.0000000000   1.4428177579  -0.8842871650
 C              0.0000000000  -1.4428177503  -0.8842871852
 C             -0.0000000000   2.8768635049  -0.8906526386
 C              0.0000000000  -2.8768635130  -0.8906526227
 C              0.0000000000   3.6139426975   0.3153373387
 C              0.0000000000  -3.6139426947   0.3153373679
 C             -0.0000000000   2.9263096460   1.5563560300
 C             -0.0000000000  -2.9263096664   1.5563560720
 C              0.0000000000   1.5102958567   1.5923660605
 C             -0.0000000000  -1.5102958947   1.5923661019
 C              0.0000000000   0.7294312551   0.3860772400
 C              0.0000000000  -0.7294312956   0.3860772470
 H             -0.0000000000   1.2432880324  -3.0483730541
 H              0.0000000000  -1.2432879120  -3.0483730655
 H              0.0000000000   3.3928985272  -1.8400920246
 H             -0.0000000000  -3.3928985433  -1.8400919996
 H              0.0000000000   4.6931019133   0.2907624074
 H              0.0000000000  -4.6931019044   0.2907624306
 H             -0.0000000000   3.4812651250   2.4824977844
 H             -0.0000000000  -3.4812651564   2.4824978152
 H             -0.0000000000   1.0233029110   2.5536559418
 H              0.0000000000  -1.0233029304   2.5536559699
