96

 C            -18.4477865229  -0.7072338705   0.0000000000
 C            -17.2644286012  -1.3993622548   0.0000000000
 C            -16.0168594284  -0.7195189520   0.0000000000
 C            -14.7920653053  -1.4014024701   0.0000000000
 C            -13.5600246709  -0.7254524029   0.0000000000
 C            -12.3290341512  -1.4048456405   0.0000000000
 C            -11.1006434887  -0.7261711875   0.0000000000
 C             -9.8603575208  -1.4053554630   0.0000000000
 C             -8.6346946157  -0.7244148184   0.0000000000
 C             -7.3922215888  -1.4026539843   0.0000000000
 C             -6.1672040668  -0.7216156031   0.0000000000
 C             -4.9257045605  -1.4033856779  -0.0000000000
 C             -3.7016210808  -0.7221850167  -0.0000000000
 C             -2.4599213471  -1.4028441866  -0.0000000000
 C             -1.2328114963  -0.7226649500  -0.0000000000
 C             -0.0000075133  -1.4007533175  -0.0000000000
 C              1.2328059946  -0.7226809329  -0.0000000000
 C              2.4599124612  -1.4028651951  -0.0000000000
 C              3.7016176075  -0.7222134152  -0.0000000000
 C              4.9257009812  -1.4034143844  -0.0000000000
 C              6.1672025138  -0.7216464937  -0.0000000000
 C              7.3922242340  -1.4026783498  -0.0000000000
 C              8.6346951050  -0.7244347708  -0.0000000000
 C              9.8603650404  -1.4053651153  -0.0000000000
 C             11.1006459902  -0.7261722830  -0.0000000000
 C             12.3290397076  -1.4048435027  -0.0000000000
 C             13.5600269881  -0.7254471553   0.0000000000
 C             14.7920695346  -1.4013939154   0.0000000000
 C             16.0168615803  -0.7195078571   0.0000000000
 C             17.2644324584  -1.3993482326   0.0000000000
 C             18.4477886078  -0.7072169361   0.0000000000
 C             18.4477700728   0.7074166480   0.0000000000
 C             17.2643958372   1.3995171225   0.0000000000
 C             16.0168426999   0.7196443635   0.0000000000
 C             14.7920325184   1.4014985578   0.0000000000
 C             13.5600079163   0.7255197803   0.0000000000
 C             12.3290014688   1.4048836436   0.0000000000
 C             11.1006268894   0.7261816328  -0.0000000000
 C              9.8603267365   1.4053405803  -0.0000000000
 C              8.6346781368   0.7243763828  -0.0000000000
 C              7.3921942479   1.4025938001  -0.0000000000
 C              6.1671900149   0.7215349383  -0.0000000000
 C              4.9256847046   1.4032912503  -0.0000000000
 C              3.7016111537   0.7220772219  -0.0000000000
 C              2.4599105581   1.4027305670  -0.0000000000
 C              1.2328070460   0.7225448640  -0.0000000000
 C              0.0000063504   1.4006335829  -0.0000000000
 C             -1.2328036585   0.7225602232  -0.0000000000
 C             -2.4599028722   1.4027520612  -0.0000000000
 C             -3.7016086309   0.7221056182  -0.0000000000
 C             -4.9256816816   1.4033207508  -0.0000000000
 C             -6.1671887773   0.7215658529  -0.0000000000
 C             -7.3921966598   1.4026192444  -0.0000000000
 C             -8.6346780854   0.7243965648   0.0000000000
 C             -9.8603334333   1.4053514784   0.0000000000
 C            -11.1006279621   0.7261836336   0.0000000000
 C            -12.3290062993   1.4048817911   0.0000000000
 C            -13.5600097436   0.7255143600   0.0000000000
 C            -14.7920361520   1.4014903094   0.0000000000
 C            -16.0168444270   0.7196332441   0.0000000000
 C            -17.2643991779   1.3995030788   0.0000000000
 C            -18.4477716856   0.7073997239   0.0000000000
 H            -19.3827924639  -1.2388214596   0.0000000000
 H            -17.2659761689  -2.4758411075   0.0000000000
 H            -14.7902627832  -2.4783576444   0.0000000000
 H            -12.3259677585  -2.4816377600   0.0000000000
 H             -9.8530643945  -2.4814442964   0.0000000000
 H             -7.3853671711  -2.4789327896   0.0000000000
 H             -4.9225667706  -2.4795791654  -0.0000000000
 H             -2.4561412406  -2.4791614434  -0.0000000000
 H             -0.0000152427  -2.4777195946  -0.0000000000
 H              2.4561268959  -2.4791829491  -0.0000000000
 H              4.9225630221  -2.4796083559  -0.0000000000
 H              7.3853760235  -2.4789577043  -0.0000000000
 H              9.8530814585  -2.4814541730  -0.0000000000
 H             12.3259763521  -2.4816356141  -0.0000000000
 H             14.7902694417  -2.4783491261   0.0000000000
 H             17.2659825263  -2.4758270746   0.0000000000
 H             19.3827959109  -1.2388021233   0.0000000000
 H             19.3827634865   1.2390262748   0.0000000000
 H             17.2659179799   2.4759960135   0.0000000000
 H             14.7902044657   2.4784537211   0.0000000000
 H             12.3259100660   2.4816757277   0.0000000000
 H              9.8530124218   2.4814292090  -0.0000000000
 H              7.3853220762   2.4788723121  -0.0000000000
 H              4.9225362306   2.4794844654  -0.0000000000
 H              2.4561257658   2.4790474923  -0.0000000000
 H              0.0000137526   2.4775996809  -0.0000000000
 H             -2.4561123559   2.4790694210  -0.0000000000
 H             -4.9225329563   2.4795143628  -0.0000000000
 H             -7.3853306086   2.4788982513  -0.0000000000
 H             -9.8530284737   2.4814403451   0.0000000000
 H            -12.3259182766   2.4816738860   0.0000000000
 H            -14.7902104147   2.4784454738   0.0000000000
 H            -17.2659237705   2.4759819578   0.0000000000
 H            -19.3827664435   1.2390069796  -0.0000000000
