96

 C            -18.4349805793  -0.7070740197  -0.0000000000
 C            -17.2501404072  -1.3998843941  -0.0000000000
 C            -16.0038162451  -0.7176171409   0.0000000000
 C            -14.7766623392  -1.4024542918   0.0000000000
 C            -13.5478285076  -0.7231384766   0.0000000000
 C            -12.3139341440  -1.4050139646   0.0000000000
 C            -11.0855093516  -0.7245661856   0.0000000000
 C             -9.8520295927  -1.4042637386   0.0000000000
 C             -8.6216662064  -0.7240511463   0.0000000000
 C             -7.3889197079  -1.4042270375   0.0000000000
 C             -6.1581350606  -0.7237313551   0.0000000000
 C             -4.9259215275  -1.4040855180  -0.0000000000
 C             -3.6948795240  -0.7237140765  -0.0000000000
 C             -2.4627898451  -1.4041750680  -0.0000000000
 C             -1.2316175578  -0.7238236517  -0.0000000000
 C             -0.0000003513  -1.4038610850  -0.0000000000
 C              1.2316173916  -0.7238245559  -0.0000000000
 C              2.4627895045  -1.4041760197  -0.0000000000
 C              3.6948795225  -0.7237157068  -0.0000000000
 C              4.9259216843  -1.4040867833  -0.0000000000
 C              6.1581351767  -0.7237327751  -0.0000000000
 C              7.3889202220  -1.4042278178  -0.0000000000
 C              8.6216663192  -0.7240514691  -0.0000000000
 C              9.8520299256  -1.4042639782  -0.0000000000
 C             11.0855094319  -0.7245661412  -0.0000000000
 C             12.3139343113  -1.4050137707  -0.0000000000
 C             13.5478286174  -0.7231382136  -0.0000000000
 C             14.7766624944  -1.4024539428   0.0000000000
 C             16.0038163871  -0.7176167736   0.0000000000
 C             17.2501405865  -1.3998839738   0.0000000000
 C             18.4349807244  -0.7070735221   0.0000000000
 C             18.4349791770   0.7070912933   0.0000000000
 C             17.2501375233   1.3998991610   0.0000000000
 C             16.0038148130   0.7176292431   0.0000000000
 C             14.7766594113   1.4024637385   0.0000000000
 C             13.5478270286   0.7231453310  -0.0000000000
 C             12.3139311804   1.4050181697  -0.0000000000
 C             11.0855078648   0.7245678121  -0.0000000000
 C              9.8520266308   1.4042627325  -0.0000000000
 C              8.6216647789   0.7240476702  -0.0000000000
 C              7.3889170552   1.4042213480  -0.0000000000
 C              6.1581337875   0.7237235931  -0.0000000000
 C              4.9259195222   1.4040761897  -0.0000000000
 C              3.6948786136   0.7237033262  -0.0000000000
 C              2.4627887774   1.4041635593  -0.0000000000
 C              1.2316171602   0.7238114623  -0.0000000000
 C              0.0000002662   1.4038489093  -0.0000000000
 C             -1.2316171964   0.7238123855  -0.0000000000
 C             -2.4627885608   1.4041647478  -0.0000000000
 C             -3.6948787174   0.7237050229  -0.0000000000
 C             -4.9259197686   1.4040776709  -0.0000000000
 C             -6.1581339725   0.7237250714   0.0000000000
 C             -7.3889176220   1.4042222602   0.0000000000
 C             -8.6216648873   0.7240480557   0.0000000000
 C             -9.8520270074   1.4042629246   0.0000000000
 C            -11.0855079481   0.7245677413   0.0000000000
 C            -12.3139313359   1.4050179674   0.0000000000
 C            -13.5478270569   0.7231450531   0.0000000000
 C            -14.7766594511   1.4024633982   0.0000000000
 C            -16.0038147840   0.7176288636   0.0000000000
 C            -17.2501375223   1.3998987121   0.0000000000
 C            -18.4349791263   0.7070907903  -0.0000000000
 H            -19.3699309391  -1.2388121321  -0.0000000000
 H            -17.2522855356  -2.4762217417  -0.0000000000
 H            -14.7782512911  -2.4791939080   0.0000000000
 H            -12.3140542257  -2.4817066433   0.0000000000
 H             -9.8515287819  -2.4809839140   0.0000000000
 H             -7.3881060899  -2.4808752757   0.0000000000
 H             -4.9252056628  -2.4807480267  -0.0000000000
 H             -2.4620933266  -2.4808503102  -0.0000000000
 H             -0.0000007727  -2.4806356621  -0.0000000000
 H              2.4620925870  -2.4808513230  -0.0000000000
 H              4.9252058892  -2.4807493490  -0.0000000000
 H              7.3881071324  -2.4808760954  -0.0000000000
 H              9.8515292942  -2.4809841738  -0.0000000000
 H             12.3140544880  -2.4817064783  -0.0000000000
 H             14.7782514815  -2.4791935842   0.0000000000
 H             17.2522857693  -2.4762213374   0.0000000000
 H             19.3699311314  -1.2388115783   0.0000000000
 H             19.3699284232   1.2388313914   0.0000000000
 H             17.2522803644   2.4762365286   0.0000000000
 H             14.7782460666   2.4792033852   0.0000000000
 H             12.3140489787   2.4817108797  -0.0000000000
 H              9.8515236049   2.4809829387  -0.0000000000
 H              7.3881015980   2.4808696012  -0.0000000000
 H              4.9252024074   2.4807386936  -0.0000000000
 H              2.4620916836   2.4808387838  -0.0000000000
 H              0.0000006998   2.4806234693  -0.0000000000
 H             -2.4620910588   2.4808399901  -0.0000000000
 H             -4.9252027309   2.4807401804  -0.0000000000
 H             -7.3881026808   2.4808704953   0.0000000000
 H             -9.8515241791   2.4809830946   0.0000000000
 H            -12.3140492144   2.4817106481   0.0000000000
 H            -14.7782461319   2.4792030196   0.0000000000
 H            -17.2522804100   2.4762360632   0.0000000000
 H            -19.3699283918   1.2388308267  -0.0000000000
