96

 C            -18.4290917436  -0.7066938174   0.0000000000
 C            -17.2447152502  -1.4023909018   0.0000000000
 C            -15.9997544853  -0.7175894473   0.0000000000
 C            -14.7684273870  -1.4038485718   0.0000000000
 C            -13.5440064424  -0.7229058284   0.0000000000
 C            -12.3041874245  -1.4066495398   0.0000000000
 C            -11.0812831388  -0.7247342974  -0.0000000000
 C             -9.8394221609  -1.4055440449  -0.0000000000
 C             -8.6198812090  -0.7263599917  -0.0000000000
 C             -7.3809887811  -1.4028496652  -0.0000000000
 C             -6.1574658966  -0.7251089965  -0.0000000000
 C             -4.9215356448  -1.4040454367  -0.0000000000
 C             -3.6977834943  -0.7246383019  -0.0000000000
 C             -2.4633532251  -1.3985289656  -0.0000000000
 C             -1.2307361783  -0.7228637405  -0.0000000000
 C             -0.0000003928  -1.4053258245  -0.0000000000
 C              1.2307359515  -0.7228646361  -0.0000000000
 C              2.4633528546  -1.3985298760   0.0000000000
 C              3.6977834550  -0.7246399134   0.0000000000
 C              4.9215357383  -1.4040467178   0.0000000000
 C              6.1574659967  -0.7251105103   0.0000000000
 C              7.3809892418  -1.4028506411   0.0000000000
 C              8.6198813243  -0.7263605664   0.0000000000
 C              9.8394225178  -1.4055445279   0.0000000000
 C             11.0812832408  -0.7247344728   0.0000000000
 C             12.3041876699  -1.4066494753   0.0000000000
 C             13.5440066017  -0.7229056414   0.0000000000
 C             14.7684276522  -1.4038482096   0.0000000000
 C             15.9997546888  -0.7175889738  -0.0000000000
 C             17.2447155461  -1.4023902787  -0.0000000000
 C             18.4290919563  -0.7066930298  -0.0000000000
 C             18.4290904209   0.7067105337  -0.0000000000
 C             17.2447125014   1.4024052143  -0.0000000000
 C             15.9997531307   0.7176012121  -0.0000000000
 C             14.7684246131   1.4038577993  -0.0000000000
 C             13.5440050351   0.7229126033   0.0000000000
 C             12.3041846120   1.4066537768   0.0000000000
 C             11.0812816863   0.7247361450   0.0000000000
 C              9.8394192885   1.4055433275   0.0000000000
 C              8.6198798083   0.7263568641   0.0000000000
 C              7.3809861211   1.4028442446   0.0000000000
 C              6.1574646217   0.7251014749   0.0000000000
 C              4.9215335780   1.4040362709   0.0000000000
 C              3.6977825348   0.7246276377   0.0000000000
 C              2.4633520516   1.3985175373   0.0000000000
 C              1.2307357065   0.7228515134  -0.0000000000
 C              0.0000002181   1.4053136196  -0.0000000000
 C             -1.2307358046   0.7228524202  -0.0000000000
 C             -2.4633518888   1.3985186421  -0.0000000000
 C             -3.6977826759   0.7246293453  -0.0000000000
 C             -4.9215337582   1.4040378419  -0.0000000000
 C             -6.1574647789   0.7251030764  -0.0000000000
 C             -7.3809866242   1.4028453810  -0.0000000000
 C             -8.6198798706   0.7263574866  -0.0000000000
 C             -9.8394196550   1.4055437176  -0.0000000000
 C            -11.0812817795   0.7247362692  -0.0000000000
 C            -12.3041848050   1.4066537165   0.0000000000
 C            -13.5440050815   0.7229123956   0.0000000000
 C            -14.7684247169   1.4038574416   0.0000000000
 C            -15.9997531229   0.7176007249   0.0000000000
 C            -17.2447125705   1.4024045606   0.0000000000
 C            -18.4290903924   0.7067097408   0.0000000000
 H            -19.3649364777  -1.2370710392   0.0000000000
 H            -17.2471338898  -2.4783145679   0.0000000000
 H            -14.7690244179  -2.4802008373   0.0000000000
 H            -12.3029201501  -2.4828731604  -0.0000000000
 H             -9.8357848996  -2.4820739532  -0.0000000000
 H             -7.3754220768  -2.4803410680  -0.0000000000
 H             -4.9165932085  -2.4813859304  -0.0000000000
 H             -2.4603181280  -2.4763489398  -0.0000000000
 H             -0.0000008149  -2.4817943256  -0.0000000000
 H              2.4603173724  -2.4763499075   0.0000000000
 H              4.9165933121  -2.4813872733   0.0000000000
 H              7.3754229768  -2.4803420873   0.0000000000
 H              9.8357854404  -2.4820744568   0.0000000000
 H             12.3029205490  -2.4828731283   0.0000000000
 H             14.7690248056  -2.4802005007   0.0000000000
 H             17.2471343245  -2.4783139615  -0.0000000000
 H             19.3649367727  -1.2370701325  -0.0000000000
 H             19.3649340872   1.2370896667  -0.0000000000
 H             17.2471289520   2.4783289015  -0.0000000000
 H             14.7690194678   2.4802100951  -0.0000000000
 H             12.3029152091   2.4828774322   0.0000000000
 H              9.8357798815   2.4820732598   0.0000000000
 H              7.3754175238   2.4803356600   0.0000000000
 H              4.9165898172   2.4813767545   0.0000000000
 H              2.4603163205   2.4763374773   0.0000000000
 H              0.0000006397   2.4817821021  -0.0000000000
 H             -2.4603157457   2.4763386216  -0.0000000000
 H             -4.9165900050   2.4813783342  -0.0000000000
 H             -7.3754184896   2.4803367775  -0.0000000000
 H             -9.8357804702   2.4820736167  -0.0000000000
 H            -12.3029155435   2.4828773412   0.0000000000
 H            -14.7690196818   2.4802097120   0.0000000000
 H            -17.2471291507   2.4783282311   0.0000000000
 H            -19.3649341135   1.2370887496   0.0000000000
