24

 C             -0.0000000000   1.3913460027  -0.0000000001
 C              0.0000000000  -1.3913460550   0.0000000001
 C             -0.0000000000   0.7122573474   1.2120773402
 C             -0.0000000000  -0.7122573815   1.2120773461
 C              0.0000000000   1.3997905327   2.4726858119
 C             -0.0000000000  -1.3997905249   2.4726858469
 C              0.0000000000   0.7162260570   3.6337528585
 C             -0.0000000000  -0.7162260112   3.6337528759
 C              0.0000000000  -0.7122573816  -1.2120773460
 C             -0.0000000000   0.7122573473  -1.2120773403
 C             -0.0000000000  -1.3997905247  -2.4726858468
 C              0.0000000000   1.3997905329  -2.4726858120
 C             -0.0000000000  -0.7162260112  -3.6337528757
 C              0.0000000000   0.7162260570  -3.6337528587
 H             -0.0000000000   2.4681798585  -0.0000000001
 H              0.0000000000  -2.4681799135   0.0000000001
 H             -0.0000000000   2.4760266967   2.4710983928
 H              0.0000000000  -2.4760266861   2.4710984612
 H             -0.0000000000   1.2409704262   4.5727106715
 H             -0.0000000000  -1.2409703311   4.5727107133
 H              0.0000000000  -2.4760266858  -2.4710984611
 H             -0.0000000000   2.4760266970  -2.4710983928
 H              0.0000000000  -1.2409703309  -4.5727107132
 H              0.0000000000   1.2409704264  -4.5727106715
