24

 C             -0.0000000000   1.3913382539   0.0000000000
 C              0.0000000000  -1.3913382542  -0.0000000000
 C             -0.0000000000   0.7122792592   1.2121107575
 C              0.0000000000  -0.7122792586   1.2121107571
 C              0.0000000000   1.3998139723   2.4727478736
 C             -0.0000000000  -1.3998139716   2.4727478730
 C              0.0000000000   0.7162244437   3.6337951245
 C             -0.0000000000  -0.7162244434   3.6337951241
 C              0.0000000000  -0.7122792594  -1.2121107576
 C             -0.0000000000   0.7122792583  -1.2121107570
 C             -0.0000000000  -1.3998139722  -2.4727478738
 C             -0.0000000000   1.3998139716  -2.4727478727
 C             -0.0000000000  -0.7162244434  -3.6337951247
 C              0.0000000000   0.7162244437  -3.6337951239
 H              0.0000000000   2.4681821591  -0.0000000003
 H             -0.0000000000  -2.4681821595   0.0000000003
 H             -0.0000000000   2.4760488681   2.4710972533
 H              0.0000000000  -2.4760488674   2.4710972526
 H             -0.0000000000   1.2408392825   4.5728240204
 H             -0.0000000000  -1.2408392835   4.5728240193
 H             -0.0000000000  -2.4760488680  -2.4710972538
 H             -0.0000000000   2.4760488674  -2.4710972521
 H              0.0000000000  -1.2408392818  -4.5728240207
 H              0.0000000000   1.2408392841  -4.5728240190
