24

 C             -0.0000000000   1.4220062618  -0.0000000052
 C              0.0000000000  -1.4220061851   0.0000000038
 C             -0.0000000000   0.7278569806   1.2501427587
 C             -0.0000000000  -0.7278570910   1.2501429044
 C              0.0000000000   1.4216106547   2.5055274973
 C             -0.0000000000  -1.4216107823   2.5055276667
 C              0.0000000000   0.7106507647   3.7296289617
 C             -0.0000000000  -0.7106507949   3.7296290837
 C              0.0000000000  -0.7278569746  -1.2501427881
 C              0.0000000000   0.7278570959  -1.2501428776
 C              0.0000000000  -1.4216106857  -2.5055275288
 C             -0.0000000000   1.4216107508  -2.5055276348
 C             -0.0000000000  -0.7106507778  -3.7296289817
 C             -0.0000000000   0.7106507811  -3.7296290603
 H              0.0000000000   2.5037576242  -0.0000000830
 H             -0.0000000000  -2.5037575482   0.0000000796
 H              0.0000000000   2.5022356049   2.5085430813
 H              0.0000000000  -2.5022357342   2.5085433213
 H             -0.0000000000   1.2506001171   4.6644505830
 H             -0.0000000000  -1.2506000410   4.6644507605
 H             -0.0000000000  -2.5022356353  -2.5085430832
 H             -0.0000000000   2.5022357024  -2.5085433186
 H             -0.0000000000  -1.2506001120  -4.6644506138
 H              0.0000000000   1.2506000442  -4.6644507254
