24

 C             -0.0000000000   1.3990240979   0.0000000017
 C              0.0000000000  -1.3990240688  -0.0000000018
 C             -0.0000000000   0.7165176669   1.2234241567
 C             -0.0000000000  -0.7165176403   1.2234241447
 C              0.0000000000   1.4000987501   2.4739319962
 C             -0.0000000000  -1.4000987424   2.4739319658
 C              0.0000000000   0.7091427420   3.6536004664
 C             -0.0000000000  -0.7091427795   3.6536004440
 C              0.0000000000  -0.7165176423  -1.2234241493
 C             -0.0000000000   0.7165176645  -1.2234241524
 C              0.0000000000  -1.4000987474  -2.4739319699
 C             -0.0000000000   1.4000987454  -2.4739319918
 C             -0.0000000000  -0.7091427800  -3.6536004474
 C              0.0000000000   0.7091427416  -3.6536004632
 H              0.0000000000   2.4758254717   0.0000000007
 H             -0.0000000000  -2.4758254409  -0.0000000009
 H              0.0000000000   2.4764280535   2.4752071912
 H             -0.0000000000  -2.4764280447   2.4752071378
 H             -0.0000000000   1.2393853642   4.5894867006
 H             -0.0000000000  -1.2393854328   4.5894866638
 H             -0.0000000000  -2.4764280503  -2.4752071395
 H             -0.0000000000   2.4764280479  -2.4752071861
 H              0.0000000000  -1.2393854275  -4.5894866709
 H              0.0000000000   1.2393853697  -4.5894866943
