24

 C             -2.4739319734   1.4000987408   0.0000000000
 C             -1.2234241450   0.7165176466  -0.0000000000
 C              0.0000000029   1.3990240783  -0.0000000000
 C              1.2234241544   0.7165176567   0.0000000000
 C              2.4739319839   1.4000987561   0.0000000000
 C              3.6536004531   0.7091427613  -0.0000000000
 C              3.6536004581  -0.7091427601  -0.0000000000
 C              2.4739319790  -1.4000987368   0.0000000000
 C              1.2234241481  -0.7165176503   0.0000000000
 C             -0.0000000026  -1.3990240882  -0.0000000000
 C             -1.2234241570  -0.7165176607  -0.0000000000
 C             -2.4739319897  -1.4000987514  -0.0000000000
 C             -3.6536004617  -0.7091427564  -0.0000000000
 C             -3.6536004502   0.7091427649   0.0000000000
 H             -2.4752071529   2.4764280438   0.0000000000
 H             -0.0000000012   2.4758254496  -0.0000000000
 H              2.4752071723   2.4764280607   0.0000000000
 H              4.5894866866   1.2393853859   0.0000000000
 H              4.5894866789  -1.2393854109  -0.0000000000
 H             -4.5894866897  -1.2393853918   0.0000000000
 H             -4.5894866762   1.2393854053  -0.0000000000
 H              2.4752071574  -2.4764280377   0.0000000000
 H              0.0000000014  -2.4758254629  -0.0000000000
 H             -2.4752071768  -2.4764280540   0.0000000000
