78

 C              7.8536514763   2.4520431398   0.0000000000
 C              7.1501959640   1.2253299281   0.0000000000
 C              7.8330379464  -0.0000001621   0.0000000000
 C              7.1501958344  -1.2253300685   0.0000000000
 C              7.8536511672  -2.4520433149   0.0000000000
 C              7.1658895902  -3.6489379780   0.0000000000
 C              5.7738344684  -3.6670503551   0.0000000000
 C              5.0224898203  -2.4737860527   0.0000000000
 C              5.7176358823  -1.2340463935   0.0000000000
 C              5.0018962956  -0.0000002688   0.0000000000
 C              5.7176358726   1.2340460313   0.0000000000
 C              5.0224899586   2.4737859948   0.0000000000
 C              5.7738347447   3.6670502849   0.0000000000
 C              7.1658898918   3.6489378271   0.0000000000
 C              3.5764866376   2.4668867199   0.0000000000
 C              2.8644768541   1.2366913672   0.0000000000
 C              3.5774698671  -0.0000002730   0.0000000000
 C              2.8644768105  -1.2366913034   0.0000000000
 C              3.5764867002  -2.4668861924   0.0000000000
 C              2.8310584771  -3.6659214570   0.0000000000
 C              1.4631476623  -3.6648125556   0.0000000000
 C              0.7196203594  -2.4620387404   0.0000000000
 C              1.4313629185  -1.2350991991   0.0000000000
 C              0.7124616744   0.0000000328   0.0000000000
 C              1.4313622675   1.2350985100   0.0000000000
 C              0.7196199698   2.4620384252   0.0000000000
 C              1.4631471785   3.6648124106   0.0000000000
 C              2.8310580099   3.6659218622   0.0000000000
 C             -0.7196202123   2.4620384354   0.0000000000
 C             -1.4313626877   1.2350985572   0.0000000000
 C             -0.7124621496  -0.0000001697   0.0000000000
 C             -1.4313625710  -1.2350989843   0.0000000000
 C             -0.7196198457  -2.4620387587   0.0000000000
 C             -1.4631472166  -3.6648125518   0.0000000000
 C             -2.8310580626  -3.6659215308   0.0000000000
 C             -3.5764864657  -2.4668862827   0.0000000000
 C             -2.8644767259  -1.2366913661   0.0000000000
 C             -3.5774697946   0.0000000642   0.0000000000
 C             -2.8644770172   1.2366916216   0.0000000000
 C             -3.5764869229   2.4668869503   0.0000000000
 C             -2.8310582512   3.6659220113   0.0000000000
 C             -1.4631473984   3.6648124632   0.0000000000
 C             -5.0224902076   2.4737865094   0.0000000000
 C             -5.7176359049   1.2340464422   0.0000000000
 C             -5.0018962514   0.0000000984   0.0000000000
 C             -5.7176357869  -1.2340460815   0.0000000000
 C             -5.0224896204  -2.4737857787   0.0000000000
 C             -5.7738341573  -3.6670501447   0.0000000000
 C             -7.1658893023  -3.6489379403   0.0000000000
 C             -7.8536510367  -2.4520433420   0.0000000000
 C             -7.1501957592  -1.2253300490   0.0000000000
 C             -7.8330378987  -0.0000000968   0.0000000000
 C             -7.1501959643   1.2253299662   0.0000000000
 C             -7.8536516119   2.4520430841   0.0000000000
 C             -7.1658903156   3.6489379385   0.0000000000
 C             -5.7738351736   3.6670507296   0.0000000000
 H              8.9292292665   2.4386685508   0.0000000000
 H              8.9091428148  -0.0000001805   0.0000000000
 H              8.9292289275  -2.4386687499   0.0000000000
 H              7.7054156695  -4.5795887771   0.0000000000
 H              5.2835696766  -4.6194393762   0.0000000000
 H              5.2835700157   4.6194393699   0.0000000000
 H              7.7054160131   4.5795886076   0.0000000000
 H              3.3304166129  -4.6135681465   0.0000000000
 H              0.9641726574  -4.6121637512   0.0000000000
 H              0.9641719415   4.6121634483   0.0000000000
 H              3.3304159609   4.6135686498   0.0000000000
 H             -0.9641721914  -4.6121637330   0.0000000000
 H             -3.3304161711  -4.6135682343   0.0000000000
 H             -3.3304161033   4.6135688404   0.0000000000
 H             -0.9641721533   4.6121634986   0.0000000000
 H             -5.2835692282  -4.6194391166   0.0000000000
 H             -7.7054152885  -4.5795888004   0.0000000000
 H             -7.7054166475   4.5795885966   0.0000000000
 H             -5.2835706612   4.6194399115   0.0000000000
 H             -8.9292288030  -2.4386688402   0.0000000000
 H             -8.9091427683  -0.0000002491   0.0000000000
 H             -8.9292293912   2.4386683107   0.0000000000
